$DATA1 SOURCE='HSPICERF' VERSION='D-2010.03-SP1'
.TITLE '************************************************************************'
 pdc temper alter#
  1.2429e+00	     25.000000 1
