
Circuit: *inverter based oscillation frequency

Model issue on line 3 : .model pfet pmos level=49 pu0=0 tox=3.35e-09 k1=0.262208 ...
unrecognized parameter (nqsmod) - ignored
unrecognized parameter (tlev) - ignored
unrecognized parameter (tlevc) - ignored
Model issue on line 4 : .model nfet nmos level=49 pu0=0 tox=3.12e-09 k1=0.416451 ...
unrecognized parameter (nqsmod) - ignored
unrecognized parameter (tlev) - ignored
unrecognized parameter (tlevc) - ignored
Doing analysis at TEMP = 27.000000 and TNOM = 27.000000

No. of Data Columns : 3  

Initial Transient Solution
--------------------------

Node                                   Voltage
----                                   -------
vdd                                        1.2
vss                                          0
vc                                         0.6
in1                                5.66768e-06
in                                         1.2
x1.c                               3.75648e-06
in2                                    1.19996
x2.c                               3.23094e-05
in3                                5.67536e-06
x3.c                               3.76155e-06
in4                                    1.19996
x4.c                               3.23094e-05
in5                                5.67536e-06
x5.c                               3.76155e-06
in6                                    1.19996
x6.c                               3.23094e-05
in7                                5.67536e-06
x7.c                               3.76155e-06
in8                                    1.19996
x8.c                               3.23094e-05
in9                                5.67536e-06
x9.c                               3.76155e-06
in10                                   1.19996
x10.c                              3.23094e-05
in11                               5.67536e-06
x11.c                              3.76155e-06
in12                                   1.19996
x12.c                              3.23094e-05
in13                               5.67536e-06
x13.c                              3.76155e-06
in14                                   1.19996
x14.c                              3.23094e-05
in15                               5.67536e-06
x15.c                              3.76155e-06
in16                                   1.19996
x16.c                              3.23094e-05
in17                               5.67536e-06
x17.c                              3.76155e-06
in18                                   1.19996
x18.c                              3.23094e-05
x19.c                                 0.532192
vc#branch                          6.56582e-08
vss#branch                         3.17992e-05
vdd#branch                        -5.76304e-08


No. of Data Rows : 3267
elapsed time since last call: 2.500 seconds.

Total elapsed time: 2.500 seconds.

Total DRAM available = 2012.175781 MB.
DRAM currently available = 130.808594 MB.
Total ngspice program size = 5.197266 MB.
Resident set size = 740.000 kB.
Shared ngspice pages = 546.000 kB.
Text (code) pages = 963.000 kB.
Stack = 0 bytes.
Library pages = 3.124023 MB.

