$DATA1 SOURCE='HSPICE' VERSION='D-2010.03 64-BIT'
.TITLE '*amp.sp mos operational amplifier optimization'
 delayr           delayf           tot_power        area_min          
 temper           alter#            
  8.435e-08        7.365e-08        1.594e-03        1.465e-09        
   25.0000           1.0000         
