$DATA1 SOURCE='HSPICE' VERSION='G-2012.06-SP1 64-BIT'
.TITLE '*three stage operational amplifier'
 ac_power         zugf             ugfzsr           zsr               
 dc_gain          phasezpm         zpm1             zpm2              
 temper           alter#            
  4.808e-03        2.349e+06        2.349e+06        7.375e+06        
  1.232e+02       -1.275e+02        5.246e+01        5.246e+01        
  2.500e+01       1                 
