 ****** HSPICE -- D-2010.03 64-BIT (Feb 23 2010) linux ******                   
  Copyright (C) 2010 Synopsys, Inc. All Rights Reserved.                        
  Unpublished-rights reserved under US copyright laws.
  This program is protected by law and is subject to the 
  terms and conditions of the license agreement from Synopsys.
  Use of this program is your acceptance to be bound by the 
  license agreement. HSPICE is the trademark of Synopsys, Inc.
  Input File: runtime/0/trival.sp                                               
 lic: No 'setenv LM_LICENSE_FILE' in current environment' 
 lic:  
 lic: FLEXlm: v8.5b 
 lic: USER:   timber30             HOSTNAME: ubuntu 
 lic: HOSTID:                      PID:      61747 
 lic: Using FLEXlm license file: 
 lic: /usr/local/flexlm/licenses/license.dat 
 lic: Checkout 1 hspice 
 lic: License/Maintenance for hspice will expire on 31-dec-2020/2007.9 
 lic: NODE LOCKED license on hostid  
 lic:   
 **error** (error:0).end is expected

               ***** job aborted
 lic: Release hspice token(s) 
