$DATA1 SOURCE='HSPICE' VERSION='G-2012.06-SP1 64-BIT'
.TITLE '*three stage operational amplifier'
 ac_power         zugf             ugfzsr           zsr               
 dc_gain          phasezpm         zpm1             zpm2              
 temper           alter#            
  1.720e-03        3.155e+06        3.155e+06        9.909e+06        
  1.241e+02       -1.278e+02        5.216e+01        5.216e+01        
  2.500e+01       1                 
