***** HSPICE -- D-2010.03 64-BIT (Feb 23 2010) linux ******
 Input File: pll_test.sp
 lic: No 'setenv LM_LICENSE_FILE' in current environment'
 lic:
 lic: FLEXlm: v8.5b
 lic: USER:   timber30             HOSTNAME: ubuntu
 lic: HOSTID:                      PID:      42613
 lic: Using FLEXlm license file:
 lic: /usr/local/flexlm/licenses/license.dat
 lic: Checkout 1 hspice
 lic: License/Maintenance for hspice will expire on 31-dec-2020/2007.9
 lic: NODE LOCKED license on hostid
 lic:
 init: begin read circuit files,  cpu clock=  0.00E+00
       option sim_ac   =     10.0
       option ingold   =     1.00
       option post     =     1.00
       option nomod
       option filety   = ascii
       option scalm    =     1.00
 init: end read circuit files,  cpu clock=  0.00E+00 memory=       288 kb
 init: begin check errors,  cpu clock=  0.00E+00
 init: end check errors,  cpu clock=  0.00E+00 memory=       682 kb
 init: begin setup matrix, pivot=     0 cpu clock=  0.00E+00
       establish matrix -- done,  cpu clock=  0.00E+00 memory=       715 kb
       re-order matrix -- done,  cpu clock=  0.00E+00 memory=       713 kb
 init: end setup matrix,  cpu clock=  0.00E+00 memory=       786 kb
 dcop: begin dcop,  cpu clock=  0.00E+00
 dcop: end dcop,  cpu clock=  2.00E-02 memory=       786 kb  tot_iter=      42
 output: pll_test.tr0
 sweep: tran tran0    begin, stop_t=  7.00E-06 #sweeps=7001 cpu clock=  2.00E-02
 tran: time= 7.0036E-07 tot_iter=    3430 conv_iter=     992 cpu clock= 5.40E-01
 tran: time= 1.4002E-06 tot_iter=    8948 conv_iter=    2556 cpu clock= 1.47E+00
 tran: time= 2.1006E-06 tot_iter=   14630 conv_iter=    4186 cpu clock= 2.39E+00
 tran: time= 2.8003E-06 tot_iter=   20066 conv_iter=    5760 cpu clock= 3.26E+00
 tran: time= 3.5006E-06 tot_iter=   25051 conv_iter=    7216 cpu clock= 4.08E+00
 tran: time= 4.2008E-06 tot_iter=   29998 conv_iter=    8683 cpu clock= 4.90E+00
 tran: time= 4.9000E-06 tot_iter=   35259 conv_iter=   10237 cpu clock= 5.78E+00
 tran: time= 5.6008E-06 tot_iter=   40155 conv_iter=   11684 cpu clock= 6.56E+00
 tran: time= 6.3000E-06 tot_iter=   45004 conv_iter=   13123 cpu clock= 7.33E+00
 tran: time= 7.0000E-06 tot_iter=   50014 conv_iter=   14599 cpu clock= 8.14E+00
 sweep: tran tran0    end,  cpu clock=  8.14E+00 memory=       791 kb
>info:         ***** hspice job concluded
 lic: Release hspice token(s)
