Using: /usr/bin/time -p /usr/synopsys/SPICE-2009.09/hspice/linux/hspice trival.sp
 ****** HSPICE -- C-2009.09 32-BIT (Aug 24 2009) linux ******                   
  Copyright (C) 2009 Synopsys, Inc. All Rights Reserved.                        
  Unpublished-rights reserved under US copyright laws.
  This program is protected by law and is subject to the 
  terms and conditions of the license agreement from Synopsys.
  Use of this program is your acceptance to be bound by the 
  license agreement. HSPICE is the trademark of Synopsys, Inc.
  Input File: trival.sp                                                         
 lic:  
 lic: FLEXlm: v8.5b 
 lic: USER:   dzcad                HOSTNAME: dzcad-desktop1 
 lic: HOSTID:                      PID:      2534 
 lic: Using FLEXlm license file: 
 lic: 27000@dzcad-desktop1 
 lic: Checkout 1 hspice 
 lic: License/Maintenance for hspice will expire on 31-dec-2020/2020.12 
 lic: NODE LOCKED license on hostid  
 lic:   
 Init: read install configuration file: /usr/synopsys/SPICE-2009.09/hspice/meta.cfg

 **warning**  version  : is not level=   8 model parameter


 **warning**  tnom     : is not level=   8 model parameter


 **warning**  nch      : is not level=   8 model parameter


 **warning**  vth0     : is not level=   8 model parameter


 **warning**  k2       : is not level=   8 model parameter


 **warning**  k3       : is not level=   8 model parameter


 **warning**  k3b      : is not level=   8 model parameter


 **warning**  w0       : is not level=   8 model parameter


 **warning**  nlx      : is not level=   8 model parameter


 **warning**  dvt0w    : is not level=   8 model parameter


 **warning**  dvt1w    : is not level=   8 model parameter


 **warning**  dvt2w    : is not level=   8 model parameter


 **warning**  dvt0     : is not level=   8 model parameter


 **warning**  dvt1     : is not level=   8 model parameter


 **warning**  dvt2     : is not level=   8 model parameter


 **warning**  vbm      : is not level=   8 model parameter


 **warning**  ua       : is not level=   8 model parameter


 **warning**  uc       : is not level=   8 model parameter


 **warning**  a0       : is not level=   8 model parameter


 **warning**  ags      : is not level=   8 model parameter


 **warning**  b0       : is not level=   8 model parameter


 **warning**  b1       : is not level=   8 model parameter


 **warning**  keta     : is not level=   8 model parameter


 **warning**  rdsw     : is not level=   8 model parameter


 **warning**  prwg     : is not level=   8 model parameter


 **warning**  prwb     : is not level=   8 model parameter


 **warning**  wr       : is not level=   8 model parameter


 **warning**  wint     : is not level=   8 model parameter


 **warning**  lint     : is not level=   8 model parameter


 **warning**  dwg      : is not level=   8 model parameter


 **warning**  dwb      : is not level=   8 model parameter


 **warning**  voff     : is not level=   8 model parameter


 **warning**  nfactor  : is not level=   8 model parameter


 **warning**  cit      : is not level=   8 model parameter


 **warning**  cdsc     : is not level=   8 model parameter


 **warning**  cdscd    : is not level=   8 model parameter


 **warning**  cdscb    : is not level=   8 model parameter


 **warning**  etab     : is not level=   8 model parameter


 **warning**  dsub     : is not level=   8 model parameter


 **warning**  pclm     : is not level=   8 model parameter


 **warning**  pdiblc1  : is not level=   8 model parameter


 **warning**  pdiblc2  : is not level=   8 model parameter


 **warning**  pdiblcb  : is not level=   8 model parameter


 **warning**  drout    : is not level=   8 model parameter


 **warning**  pscbe1   : is not level=   8 model parameter


 **warning**  pscbe2   : is not level=   8 model parameter


 **warning**  pvag     : is not level=   8 model parameter


 **warning**  alpha0   : is not level=   8 model parameter


 **warning**  beta0    : is not level=   8 model parameter


 **warning**  alpha1   : is not level=   8 model parameter


 **warning**  mobmod   : is not level=   8 model parameter


 **warning**  prt      : is not level=   8 model parameter


 **warning**  ute      : is not level=   8 model parameter


 **warning**  kt1      : is not level=   8 model parameter


 **warning**  kt1l     : is not level=   8 model parameter


 **warning**  kt2      : is not level=   8 model parameter


 **warning**  ua1      : is not level=   8 model parameter


 **warning**  ub1      : is not level=   8 model parameter


 **warning**  uc1      : is not level=   8 model parameter


 **warning**  at       : is not level=   8 model parameter


 **warning**  xt       : is not level=   8 model parameter


 **warning**  nqsmod   : is not level=   8 model parameter


 **warning**  elm      : is not level=   8 model parameter


 **warning**  wl       : is not level=   8 model parameter


 **warning**  wln      : is not level=   8 model parameter


 **warning**  ww       : is not level=   8 model parameter


 **warning**  wwn      : is not level=   8 model parameter


 **warning**  wwl      : is not level=   8 model parameter


 **warning**  ll       : is not level=   8 model parameter


 **warning**  lln      : is not level=   8 model parameter


 **warning**  lw       : is not level=   8 model parameter


 **warning**  lwn      : is not level=   8 model parameter


 **warning**  lwl      : is not level=   8 model parameter


 **warning**  noimod   : is not level=   8 model parameter


 **warning**  ef       : is not level=   8 model parameter


 **warning**  capmod   : is not level=   8 model parameter


 **warning**  pbsw     : is not level=   8 model parameter


 **warning**  cjswg    : is not level=   8 model parameter


 **warning**  pbswg    : is not level=   8 model parameter


 **warning**  mjswg    : is not level=   8 model parameter


 **warning**  clc      : is not level=   8 model parameter


 **warning**  cle      : is not level=   8 model parameter


 **warning**  noff     : is not level=   8 model parameter


 **warning**  acde     : is not level=   8 model parameter


 **warning**  moin     : is not level=   8 model parameter


 **warning**  tpb      : is not level=   8 model parameter


 **warning**  tpbsw    : is not level=   8 model parameter


 **warning**  tpbswg   : is not level=   8 model parameter


 **warning**  tcj      : is not level=   8 model parameter


 **warning**  tcjsw    : is not level=   8 model parameter


 **warning**  tcjswg   : is not level=   8 model parameter


 **warning**  version  : is not level=   8 model parameter


 **warning**  tnom     : is not level=   8 model parameter


 **warning**  nch      : is not level=   8 model parameter


 **warning**  vth0     : is not level=   8 model parameter


 **warning**  k2       : is not level=   8 model parameter


 **warning**  k3       : is not level=   8 model parameter


 **warning**  k3b      : is not level=   8 model parameter


 **warning**  w0       : is not level=   8 model parameter


 **warning**  nlx      : is not level=   8 model parameter


 **warning**  dvt0w    : is not level=   8 model parameter


 **warning**  dvt1w    : is not level=   8 model parameter


 **warning**  dvt2w    : is not level=   8 model parameter


 **warning**  dvt0     : is not level=   8 model parameter


 **warning**  dvt1     : is not level=   8 model parameter


 **warning**  dvt2     : is not level=   8 model parameter


 **warning**  vbm      : is not level=   8 model parameter


 **warning**  ua       : is not level=   8 model parameter


 **warning**  uc       : is not level=   8 model parameter


 **warning**  a0       : is not level=   8 model parameter


 **warning**  ags      : is not level=   8 model parameter


 **warning**  b0       : is not level=   8 model parameter


 **warning**  b1       : is not level=   8 model parameter


 **warning**  keta     : is not level=   8 model parameter


 **warning**  rdsw     : is not level=   8 model parameter


 **warning**  prwg     : is not level=   8 model parameter


 **warning**  prwb     : is not level=   8 model parameter


 **warning**  wr       : is not level=   8 model parameter


 **warning**  wint     : is not level=   8 model parameter


 **warning**  lint     : is not level=   8 model parameter


 **warning**  dwg      : is not level=   8 model parameter


 **warning**  dwb      : is not level=   8 model parameter


 **warning**  voff     : is not level=   8 model parameter


 **warning**  nfactor  : is not level=   8 model parameter


 **warning**  cit      : is not level=   8 model parameter


 **warning**  cdsc     : is not level=   8 model parameter


 **warning**  cdscd    : is not level=   8 model parameter


 **warning**  cdscb    : is not level=   8 model parameter


 **warning**  etab     : is not level=   8 model parameter


 **warning**  dsub     : is not level=   8 model parameter


 **warning**  pclm     : is not level=   8 model parameter


 **warning**  pdiblc1  : is not level=   8 model parameter


 **warning**  pdiblc2  : is not level=   8 model parameter


 **warning**  pdiblcb  : is not level=   8 model parameter


 **warning**  drout    : is not level=   8 model parameter


 **warning**  pscbe1   : is not level=   8 model parameter


 **warning**  pscbe2   : is not level=   8 model parameter


 **warning**  pvag     : is not level=   8 model parameter


 **warning**  alpha0   : is not level=   8 model parameter


 **warning**  beta0    : is not level=   8 model parameter


 **warning**  alpha1   : is not level=   8 model parameter


 **warning**  mobmod   : is not level=   8 model parameter


 **warning**  prt      : is not level=   8 model parameter


 **warning**  ute      : is not level=   8 model parameter


 **warning**  kt1      : is not level=   8 model parameter


 **warning**  kt1l     : is not level=   8 model parameter


 **warning**  kt2      : is not level=   8 model parameter


 **warning**  ua1      : is not level=   8 model parameter


 **warning**  ub1      : is not level=   8 model parameter


 **warning**  uc1      : is not level=   8 model parameter


 **warning**  at       : is not level=   8 model parameter


 **warning**  nqsmod   : is not level=   8 model parameter


 **warning**  elm      : is not level=   8 model parameter


 **warning**  wl       : is not level=   8 model parameter


 **warning**  wln      : is not level=   8 model parameter


 **warning**  ww       : is not level=   8 model parameter


 **warning**  wwn      : is not level=   8 model parameter


 **warning**  wwl      : is not level=   8 model parameter


 **warning**  ll       : is not level=   8 model parameter


 **warning**  lln      : is not level=   8 model parameter


 **warning**  lw       : is not level=   8 model parameter


 **warning**  lwn      : is not level=   8 model parameter


 **warning**  lwl      : is not level=   8 model parameter


 **warning**  noimod   : is not level=   8 model parameter


 **warning**  ef       : is not level=   8 model parameter


 **warning**  capmod   : is not level=   8 model parameter


 **warning**  pbsw     : is not level=   8 model parameter


 **warning**  cjswg    : is not level=   8 model parameter


 **warning**  pbswg    : is not level=   8 model parameter


 **warning**  mjswg    : is not level=   8 model parameter


 **warning**  ckappa   : is not level=   8 model parameter


 **warning**  clc      : is not level=   8 model parameter


 **warning**  cle      : is not level=   8 model parameter


 **warning**  noff     : is not level=   8 model parameter


 **warning**  acde     : is not level=   8 model parameter


 **warning**  moin     : is not level=   8 model parameter


 **warning**  tpb      : is not level=   8 model parameter


 **warning**  tpbsw    : is not level=   8 model parameter


 **warning**  tpbswg   : is not level=   8 model parameter


 **warning**  tcj      : is not level=   8 model parameter


 **warning**  tcjsw    : is not level=   8 model parameter


 **warning**  tcjswg   : is not level=   8 model parameter


 **warning** ngate can not be .le. zero
 in your model        0:pmos            , ngate was reset             to 1.0d18 

1****** HSPICE -- C-2009.09 32-BIT (Aug 24 2009) linux ******                   
 ******  
 *digital inverter

  ******  mos   model parameters tnom=  25.000 temp=  25.000 *****
 ***************************************************************************
 *** common model parameters  model name:   0:pmos     model type:pmos   ***
 ***************************************************************************
     names  values   units     names  values   units     names  values   units
     -----  ------   -----     -----  ------   -----     -----  ------   -----

   1*** geometry parameters ***
       ld= 225.00n meters      lmlt=   1.00                wd=   0.    meters 
     wmlt=   1.00                xl=   0.    meters        xw=   0.    meters 
     lref=   0.    meters      wref=   0.    meters      lref=   0.    meters 
     wref=   0.    meters     xlref=   0.    meters     xwref=   0.    meters 
     lmin=   0.    meters      wmin=   0.    meters      lmax=   0.    meters 
     wmax=   0.    meters 

   2*** threshold voltage parameters ***
      vto= 105.05m volts        nss=   0.    1/cm**2      tpg=   1.00         
      phi= 626.92m volts      gamma=  61.73m v**0.5      bulk=  gnd           
    ngate= 1.0e+18 cm**3       nsub= 2.5e+15 1/cm**3   delvto=   0.    volts  

   3*** gate overlap capacitance parameters ***
     cgbo=   0.    f/meter     cgdo= 104.29p f/meter     cgso= 104.29p f/meter
     meto=   0.    meters 

   4*** gate capacitance parameters ***
    capop=   2.00               cf1=   0.    volts        cf2= 100.00m volts  
      cf3=   1.00  volts        cf4=  50.00               cf5= 666.67m        
      cf6= 500.00               xqc= 500.00m              tox=   7.40n meters 
      cox=   4.67m f/m**2 

   5*** diffusion parasitic parameters ***
      acm=   0.                  is=  10.00f amps          js= 191.00n a/m**2 
      jsw= 686.00f amp/m        nds=   1.00               cbd=   0.    farad  
      cbs=   0.    farad         cj=   1.27m f/m**2      cjsw= 255.00p f/m    
   cjgate= 255.00p f/m           mj= 442.00m             mjsw= 373.00m        
       pb= 908.00m volts        php= 908.00m volts         tt=   0.    secs   
     hdif=   0.    meters      ldif=   0.    meters        rd=   0.    ohms   
       rs=   0.    ohms         rsh=   2.40  ohms/sq       fc=   0.           
    alpha=   0.                 vcr=   0.    volts      iirat=   0.           
      rdc=   0.    ohms         rsc=   0.    ohms           n=   1.00         
     vnds=  -1.00  volts  

   6*** temperature effect parameters ***
     tlev=   0.               tlevc=   0.                  eg=   1.11  ev     
     gap1= 702.00u ev/deg      gap2=   1.11k deg          xti=   0.           
      bex=  -1.50               tcv=   0.    v/deg k      trd=   0.    /deg   
      trs=   0.    /deg         cta=   0.    /deg         ctp=   0.    /deg   

   7*** noise parameters ***
       kf= 2.2e-28               af=   1.00              nlev=   2.00         
   gdsnoi=   1.00         

   ***  level  8  model parameters  ***

      clm=   7.00               mob=   6.00               nfs=   0.    1/cm**2
      cav=   0.                  xj= 300.00n meters     ucrit=  10.00k v/cm   
    delta=  13.16m            ecrit=   0.    v/m           kp= 9.6e-27 a/v**2 
      eta=   0.                 dns= 2.5e+15 1/cm**3     snvb=   0.   1/vcm**3

    *** mob:    6.00     mobility parameters ***
     utra=   0.                uexp=   0.                  uo= 2.1e-20cm**2/vs

    *** clm:    7.00     channel length modulation parameters ***
     lam1=   0.    1/m       lambda=   0.    /v     
 ***************************************************************************
 *** common model parameters  model name:   0:nmos     model type:nmos   ***
 ***************************************************************************
     names  values   units     names  values   units     names  values   units
     -----  ------   -----     -----  ------   -----     -----  ------   -----

   1*** geometry parameters ***
       ld= 172.50n meters      lmlt=   1.00                wd=   0.    meters 
     wmlt=   1.00                xl=   0.    meters        xw=   0.    meters 
     lref=   0.    meters      wref=   0.    meters      lref=   0.    meters 
     wref=   0.    meters     xlref=   0.    meters     xwref=   0.    meters 
     lmin=   0.    meters      wmin=   0.    meters      lmax=   0.    meters 
     wmax=   0.    meters 

   2*** threshold voltage parameters ***
      vto=-238.16m volts        nss=   0.    1/cm**2      tpg=   1.00         
      phi= 579.84m volts      gamma=  39.04m v**0.5      bulk=  gnd           
    ngate=   0.    cm**3       nsub= 1.0e+15 1/cm**3   delvto=   0.    volts  

   3*** gate overlap capacitance parameters ***
     cgbo=   0.    f/meter     cgdo= 104.29p f/meter     cgso= 104.29p f/meter
     meto=   0.    meters 

   4*** gate capacitance parameters ***
    capop=   2.00               cf1=   0.    volts        cf2= 100.00m volts  
      cf3=   1.00  volts        cf4=  50.00               cf5= 666.67m        
      cf6= 500.00               xqc= 500.00m              tox=   7.40n meters 
      cox=   4.67m f/m**2 

   5*** diffusion parasitic parameters ***
      acm=   0.                  is=  10.00f amps          js= 160.00n a/m**2 
      jsw= 400.00f amp/m        nds=   1.00               cbd=   0.    farad  
      cbs=   0.    farad         cj= 886.00u f/m**2      cjsw= 265.00p f/m    
   cjgate= 265.00p f/m           mj= 369.00m             mjsw= 356.00m        
       pb= 904.00m volts        php= 904.00m volts         tt=   0.    secs   
     hdif=   0.    meters      ldif=   0.    meters        rd=   0.    ohms   
       rs=   0.    ohms         rsh=   2.70  ohms/sq       fc=   0.           
    alpha=   0.                 vcr=   0.    volts      iirat=   0.           
      rdc=   0.    ohms         rsc=   0.    ohms           n=   1.00         
     vnds=  -1.00  volts  

   6*** temperature effect parameters ***
     tlev=   0.               tlevc=   0.                  eg=   1.11  ev     
     gap1= 702.00u ev/deg      gap2=   1.11k deg          xti=   0.           
      bex=  -1.50               tcv=   0.    v/deg k      trd=   0.    /deg   
      trs=   0.    /deg         cta=   0.    /deg         ctp=   0.    /deg   

   7*** noise parameters ***
       kf= 3.9e-28               af=   1.00              nlev=   2.00         
   gdsnoi=   1.00         

   ***  level  8  model parameters  ***

      clm=   7.00               mob=   6.00               nfs=   0.    1/cm**2
      cav=   0.                  xj= 230.00n meters     ucrit=  10.00k v/cm   
    delta=   1.62m            ecrit=   0.    v/m           kp= 9.7e-26 a/v**2 
      eta=   0.                 dns= 1.0e+15 1/cm**3     snvb=   0.   1/vcm**3

    *** mob:    6.00     mobility parameters ***
     utra=   0.                uexp=   0.                  uo= 2.1e-19cm**2/vs

    *** clm:    7.00     channel length modulation parameters ***
     lam1=   0.    1/m       lambda=   0.    /v     
  **warning** (trival.sp:17) dc voltage reset to initial transient source value              in source        0:vsig                new dc=  0.3000D+01
 
      
 **diagnostic** set option symb=1 internally to help for convergence.
 *****************************************************************
 ******  option summary
 ******
 runlvl  = 5         bypass  = 2         
1****** HSPICE -- C-2009.09 32-BIT (Aug 24 2009) linux ******                   
 ******  
 *digital inverter

  ******  operating point information tnom=  25.000 temp=  25.000 *****
 ***** operating point status is voltage   simulation time is     0.     
    node    =voltage      node    =voltage      node    =voltage

 +0:in      =   3.0000  0:out     =   1.5011  0:vdd     =   3.0000 
 +0:vss     =   0.     


          ***** job concluded
1****** HSPICE -- C-2009.09 32-BIT (Aug 24 2009) linux ******                   
 ******  
 *digital inverter

  ******  job statistics summary tnom=  25.000 temp=  25.000 *****
 
 
 ******  Machine Information  ******
 CPU:
 model name	: Intel(R) Core(TM) i7-3610QM CPU @ 2.30GHz
 cpu MHz	: 2301.000
 
 OS:
 Linux version 2.6.32-74-generic-pae (buildd@allspice) (gcc version 4.4.3 (Ubunt
 u 4.4.3-4ubuntu5.1) ) #142-Ubuntu SMP Tue Apr 28 10:17:31 UTC 2015


  ******  HSPICE Threads Information  ******

  Command Line Threads Count                  :     1
  Available CPU Count                         :     2
  Actual Model Evaluation(Load) Threads Count :     1
  Actual Solver Threads Count                 :     1


  ******  Circuit Statistics  ******
  # nodes       =       5 # elements   =       6
  # resistors   =       0 # capacitors =       1 # inductors   =       0
  # mutual_inds =       0 # vccs       =       0 # vcvs        =       0
  # cccs        =       0 # ccvs       =       0 # volt_srcs   =       3
  # curr_srcs   =       0 # diodes     =       0 # bjts        =       0
  # jfets       =       0 # mosfets    =       2 # U elements  =       0
  # T elements  =       0 # W elements =       0 # B elements  =       0
  # S elements  =       0 # P elements =       0 # va device   =       0


  ******  Runtime Statistics (seconds)  ******

  analysis           time    # points   tot. iter  conv.iter
  op point           0.00           1           3
  transient          0.01        4001         471         156 rev=        24
  readin             0.00
  errchk             0.00
  setup              0.00
  output             0.00


           total memory used          161  kbytes
           total cpu time            0.01 seconds
           total elapsed time        0.06 seconds
           job started at     20:09:18 05/29/2019
           job ended   at     20:09:18 05/29/2019


 lic: Release hspice token(s) 
